methyl
BBcorina  04172110023D 1   1.00000     0.00000     0
CORINA 4.3.0 0026  30.10.2019
  2  1  0  0  0  0  0  0  0  0999 V2000
   -0.0127    1.0858    0.0080 C   0  0  0  0  0  0  0  0  0  0  0  0
   -0.8412    1.6566    1.4643 X   0  0  0  0  0  0  0  0  0  0  0  0
  1  2  1  0  0  0  0
M  END
$$$$
