scaffold
  PyMOL2.3          3D                             0

 38 41  0  0  0  0  0  0  0  0999 V2000
   70.3797   -8.8442   72.8906 H   0  0  0  1  0  0  0  0  0  0  0  0
   70.0116   -4.5503   75.3031 C   0  0  0  1  0  0  0  0  0  0  0  0
   70.1819   -5.3992   76.3842 C   0  0  0  1  0  0  0  0  0  0  0  0
   70.0297   -4.9041   77.6483 C   0  0  0  1  0  0  0  0  0  0  0  0
   69.7103   -3.5722   77.8224 C   0  0  0  1  0  0  0  0  0  0  0  0
   69.5490   -2.7351   76.7524 C   0  0  0  1  0  0  0  0  0  0  0  0
   69.7042   -3.2374   75.4764 C   0  0  0  1  0  0  0  0  0  0  0  0
   70.1828   -5.0412   73.8999 C   0  0  0  1  0  0  0  0  0  0  0  0
   69.9285   -6.8811   72.3257 C   0  0  0  1  0  0  0  0  0  0  0  0
   68.9405   -6.1007   71.4591 C   0  0  0  1  0  0  0  0  0  0  0  0
   70.3403   -4.0889   71.5213 C   0  0  0  1  0  0  0  0  0  0  0  0
   70.8317   -4.2380   72.8098 C   0  0  0  1  0  0  0  0  0  0  0  0
   68.0428   -4.4632   70.3475 C   0  0  0  1  0  0  0  0  0  0  0  0
   71.0399   -3.2340   70.6654 C   0  0  0  1  0  0  0  0  0  0  0  0
   72.1799   -2.5348   71.0761 C   0  0  0  1  0  0  0  0  0  0  0  0
   72.6285   -2.7140   72.3780 C   0  0  0  1  0  0  0  0  0  0  0  0
   71.9598   -3.5593   73.2587 C   0  0  0  1  0  0  0  0  0  0  0  0
   69.7005   -8.3281   72.2120 C   0  0  0  1  0  0  0  0  0  0  0  0
   67.7985   -3.1015   69.7021 C   0  0  0  1  0  0  0  0  0  0  0  0
   69.7413   -6.3892   73.6618 N   0  0  0  1  0  0  0  0  0  0  0  0
   69.1772   -4.7713   71.0994 N   0  0  0  1  0  0  0  0  0  0  0  0
   67.7240   -6.5328   70.9367 N   0  0  0  1  0  0  0  0  0  0  0  0
   67.1762   -5.4407   70.2299 N   0  0  0  1  0  0  0  0  0  0  0  0
   69.5031   -2.9187   79.4182 Cl  0  0  0  1  0  0  0  0  0  0  0  0
   73.5189   -2.1838   72.7158 H   0  0  0  1  0  0  0  0  0  0  0  0
   70.6851   -3.1076   69.6426 H   0  0  0  1  0  0  0  0  0  0  0  0
   72.3138   -3.6872   74.2817 H   0  0  0  1  0  0  0  0  0  0  0  0
   69.5811   -2.5848   74.6120 H   0  0  0  1  0  0  0  0  0  0  0  0
   69.3011   -1.6848   76.9057 H   0  0  0  1  0  0  0  0  0  0  0  0
   70.4339   -6.4481   76.2285 H   0  0  0  1  0  0  0  0  0  0  0  0
   70.1594   -5.5554   78.5127 H   0  0  0  1  0  0  0  0  0  0  0  0
   70.9611   -6.7351   72.0087 H   0  0  0  1  0  0  0  0  0  0  0  0
   68.6675   -8.5596   72.4715 H   0  0  0  1  0  0  0  0  0  0  0  0
   72.7027   -1.8666   70.3917 H   0  0  0  1  0  0  0  0  0  0  0  0
   69.8832   -8.6525   71.1876 H   0  0  0  1  0  0  0  0  0  0  0  0
   66.9414   -2.6237   70.1766 H   0  0  0  1  0  0  0  0  0  0  0  0
   68.6807   -2.4743   69.8306 H   0  0  0  1  0  0  0  0  0  0  0  0
   67.5976   -3.2335   68.6389 H   0  0  0  1  0  0  0  0  0  0  0  0
  1 18  1  0  0  0  0
  2  3  1  0  0  0  0
  2  7  2  0  0  0  0
  2  8  1  0  0  0  0
  3  4  2  0  0  0  0
  3 30  1  0  0  0  0
  4  5  1  0  0  0  0
  4 31  1  0  0  0  0
  5  6  2  0  0  0  0
  5 24  1  0  0  0  0
  6  7  1  0  0  0  0
  6 29  1  0  0  0  0
  7 28  1  0  0  0  0
  8 12  1  0  0  0  0
  8 20  2  0  0  0  0
  9 10  1  0  0  0  0
  9 18  1  0  0  0  0
  9 20  1  0  0  0  0
  9 32  1  0  0  0  0
 10 21  1  0  0  0  0
 10 22  2  0  0  0  0
 11 12  1  0  0  0  0
 11 14  2  0  0  0  0
 11 21  1  0  0  0  0
 12 17  2  0  0  0  0
 13 19  1  0  0  0  0
 13 21  1  0  0  0  0
 13 23  2  0  0  0  0
 14 15  1  0  0  0  0
 14 26  1  0  0  0  0
 15 16  2  0  0  0  0
 15 34  1  0  0  0  0
 16 17  1  0  0  0  0
 16 25  1  0  0  0  0
 17 27  1  0  0  0  0
 18 33  1  0  0  0  0
 18 35  1  0  0  0  0
 19 36  1  0  0  0  0
 19 37  1  0  0  0  0
 19 38  1  0  0  0  0
 22 23  1  0  0  0  0
M  END
$$$$
