469
  PyMOL2.3          3D                             0

 51 53  0  0  0  0  0  0  0  0999 V2000
  -24.4100   17.0350  -18.4860 F   0  0  0  1  0  0  0  0  0  0  0  0
  -22.9800   18.7750  -20.0830 F   0  0  0  1  0  0  0  0  0  0  0  0
  -14.9040   18.7990  -15.6610 O   0  0  0  1  0  0  0  0  0  0  0  0
  -18.0940   15.7180  -18.6210 N   0  3  0  1  0  0  0  0  0  0  0  0
  -15.2920   16.9260  -16.8050 N   0  0  0  1  0  0  0  0  0  0  0  0
  -12.4410   14.1820  -11.6640 C   0  0  0  1  0  0  0  0  0  0  0  0
  -14.5010   16.2050  -10.9080 C   0  0  0  1  0  0  0  0  0  0  0  0
  -16.6740   15.4130  -19.0190 C   0  0  0  1  0  0  0  0  0  0  0  0
  -18.1890   16.7420  -17.5130 C   0  0  0  1  0  0  0  0  0  0  0  0
  -19.0140   15.9450  -19.7860 C   0  0  0  1  0  0  0  0  0  0  0  0
  -15.7930   16.6550  -19.1940 C   0  0  0  1  0  0  0  0  0  0  0  0
  -17.3130   17.9720  -17.7300 C   0  0  0  1  0  0  0  0  0  0  0  0
  -15.8530   17.5810  -17.9740 C   0  0  0  1  0  0  0  0  0  0  0  0
  -22.5160   15.6410  -18.2850 C   0  0  0  1  0  0  0  0  0  0  0  0
  -12.6630   14.9830  -14.0220 C   0  0  0  1  0  0  0  0  0  0  0  0
  -21.1860   15.3730  -18.6190 C   0  0  0  1  0  0  0  0  0  0  0  0
  -13.2160   15.7990  -14.9990 C   0  0  0  1  0  0  0  0  0  0  0  0
  -21.0650   17.4190  -19.9100 C   0  0  0  1  0  0  0  0  0  0  0  0
  -14.6040   16.8470  -13.3360 C   0  0  0  1  0  0  0  0  0  0  0  0
  -23.1130   16.7890  -18.7880 C   0  0  0  1  0  0  0  0  0  0  0  0
  -22.3950   17.6660  -19.5910 C   0  0  0  1  0  0  0  0  0  0  0  0
  -14.7980   17.5760  -15.7120 C   0  0  0  1  0  0  0  0  0  0  0  0
  -13.0780   15.0880  -12.6960 C   0  0  0  1  0  0  0  0  0  0  0  0
  -14.0480   16.0360  -12.3470 C   0  0  0  1  0  0  0  0  0  0  0  0
  -20.4540   16.2550  -19.4270 C   0  0  0  1  0  0  0  0  0  0  0  0
  -14.1960   16.7420  -14.6700 C   0  0  0  1  0  0  0  0  0  0  0  0
  -18.4120   14.8430  -18.1740 H   0  0  0  1  0  0  0  0  0  0  0  0
  -15.3840   15.8950  -16.7050 H   0  0  0  1  0  0  0  0  0  0  0  0
  -12.1997   13.2225  -12.1215 H   0  0  0  1  0  0  0  0  0  0  0  0
  -13.1350   14.0270  -10.8379 H   0  0  0  1  0  0  0  0  0  0  0  0
  -11.5282   14.6448  -11.2890 H   0  0  0  1  0  0  0  0  0  0  0  0
  -15.5311   15.8624  -10.8094 H   0  0  0  1  0  0  0  0  0  0  0  0
  -14.4402   17.2568  -10.6285 H   0  0  0  1  0  0  0  0  0  0  0  0
  -13.8587   15.6166  -10.2528 H   0  0  0  1  0  0  0  0  0  0  0  0
  -16.2383   14.8306  -18.2071 H   0  0  0  1  0  0  0  0  0  0  0  0
  -17.8889   16.2667  -16.5791 H   0  0  0  1  0  0  0  0  0  0  0  0
  -16.6917   14.8691  -19.9635 H   0  0  0  1  0  0  0  0  0  0  0  0
  -19.2218   17.0897  -17.4922 H   0  0  0  1  0  0  0  0  0  0  0  0
  -18.6237   16.7816  -20.3655 H   0  0  0  1  0  0  0  0  0  0  0  0
  -19.0380   15.0048  -20.3369 H   0  0  0  1  0  0  0  0  0  0  0  0
  -14.7614   16.3367  -19.3441 H   0  0  0  1  0  0  0  0  0  0  0  0
  -17.6778   18.5022  -18.6097 H   0  0  0  1  0  0  0  0  0  0  0  0
  -16.1638   17.2106  -20.0553 H   0  0  0  1  0  0  0  0  0  0  0  0
  -17.3678   18.6078  -16.8464 H   0  0  0  1  0  0  0  0  0  0  0  0
  -15.2612   18.4768  -18.1624 H   0  0  0  1  0  0  0  0  0  0  0  0
  -23.0745   14.9613  -17.6414 H   0  0  0  1  0  0  0  0  0  0  0  0
  -11.8987   14.2549  -14.2939 H   0  0  0  1  0  0  0  0  0  0  0  0
  -20.7107   14.4656  -18.2463 H   0  0  0  1  0  0  0  0  0  0  0  0
  -12.8836   15.7043  -16.0328 H   0  0  0  1  0  0  0  0  0  0  0  0
  -20.5052   18.1214  -20.5275 H   0  0  0  1  0  0  0  0  0  0  0  0
  -15.3690   17.5746  -13.0651 H   0  0  0  1  0  0  0  0  0  0  0  0
  1 20  1  0  0  0  0
  2 21  1  0  0  0  0
  3 22  2  0  0  0  0
  4  8  1  0  0  0  0
  4  9  1  0  0  0  0
  4 10  1  0  0  0  0
  4 27  1  0  0  0  0
  5 13  1  0  0  0  0
  5 22  1  0  0  0  0
  5 28  1  0  0  0  0
  6 23  1  0  0  0  0
  6 29  1  0  0  0  0
  6 30  1  0  0  0  0
  6 31  1  0  0  0  0
  7 24  1  0  0  0  0
  7 32  1  0  0  0  0
  7 33  1  0  0  0  0
  7 34  1  0  0  0  0
  8 11  1  0  0  0  0
  8 35  1  0  0  0  0
  8 37  1  0  0  0  0
  9 12  1  0  0  0  0
  9 36  1  0  0  0  0
  9 38  1  0  0  0  0
 10 25  1  0  0  0  0
 10 39  1  0  0  0  0
 10 40  1  0  0  0  0
 11 13  1  0  0  0  0
 11 41  1  0  0  0  0
 11 43  1  0  0  0  0
 12 13  1  0  0  0  0
 12 42  1  0  0  0  0
 12 44  1  0  0  0  0
 13 45  1  0  0  0  0
 14 16  2  0  0  0  0
 14 20  1  0  0  0  0
 14 46  1  0  0  0  0
 15 17  2  0  0  0  0
 15 23  1  0  0  0  0
 15 47  1  0  0  0  0
 16 25  1  0  0  0  0
 16 48  1  0  0  0  0
 17 26  1  0  0  0  0
 17 49  1  0  0  0  0
 18 21  1  0  0  0  0
 18 25  2  0  0  0  0
 18 50  1  0  0  0  0
 19 24  1  0  0  0  0
 19 26  2  0  0  0  0
 19 51  1  0  0  0  0
 20 21  2  0  0  0  0
 22 26  1  0  0  0  0
 23 24  2  0  0  0  0
M  END
$$$$
