acrylamide_amine_2
  PyMOL2.2          3D                             0

 18 17  0  0  0  0  0  0  0  0999 V2000
  -46.5240   13.0570   -1.6050 C   0  0  0  0  0  0  0  0  0  0  0  0
  -48.7330   13.8210   -2.2470 N   0  0  0  0  0  0  0  0  0  0  0  0
  -47.9160   13.0990   -1.4160 C   0  0  0  0  0  0  0  0  0  0  0  0
  -49.2640   13.1760   -3.2910 C   0  0  0  0  0  0  0  0  0  0  0  0
  -50.2230   13.9700   -4.1960 C   0  0  0  0  0  0  0  0  0  0  0  0
  -49.8100   13.8240   -5.6720 C   0  0  0  0  0  0  0  0  0  0  0  0
  -49.0320   12.0060   -3.5640 O   0  0  0  0  0  0  0  0  0  0  0  0
  -45.4242   11.3828   -1.2055 H   0  0  0  0  0  0  0  0  0  0  0  0
  -46.1820   12.0133    0.1172 H   0  0  0  0  0  0  0  0  0  0  0  0
  -46.4232   12.5655   -2.5727 H   0  0  0  0  0  0  0  0  0  0  0  0
  -46.1652   14.0825   -1.5167 H   0  0  0  0  0  0  0  0  0  0  0  0
  -50.3849   14.3248   -6.4509 H   0  0  0  0  0  0  0  0  0  0  0  0
  -48.9427   13.2198   -5.9381 H   0  0  0  0  0  0  0  0  0  0  0  0
  -51.0735   14.5527   -3.8423 H   0  0  0  0  0  0  0  0  0  0  0  0
  -48.9255   14.7980   -2.0780 H   0  0  0  0  0  0  0  0  0  0  0  0
  -48.0065   13.6397   -0.4739 H   0  0  0  0  0  0  0  0  0  0  0  0
  -48.2640   12.0671   -1.4632 H   0  0  0  0  0  0  0  0  0  0  0  0
  -45.6763   12.2364   -0.7281 N   0  0  0  0  0  0  0  0  0  0  0  0
  1  3  1  0  0  0  0
  1 10  1  0  0  0  0
  1 11  1  0  0  0  0
  2 15  1  0  0  0  0
  2  3  1  0  0  0  0
  3 16  1  0  0  0  0
  3 17  1  0  0  0  0
  2  4  1  0  0  0  0
  4  5  1  0  0  0  0
  4  7  2  0  0  0  0
  5  6  2  0  0  0  0
  5 14  1  0  0  0  0
  6 12  1  0  0  0  0
  6 13  1  0  0  0  0
  1 18  1  0  0  0  0
  8 18  1  0  0  0  0
  9 18  1  0  0  0  0
M  END
$$$$
