methoxyester
BBcorina  04172115143D 1   1.00000     0.00000     0
CORINA 4.3.0 0026  30.10.2019
  5  4  0  0  0  0  0  0  0  0999 V2000
   -0.6923    1.5541    1.2026 O   0  0  0  0  0  0  0  0  0  0  0  0
   -1.9697    1.1752    1.3651 C   0  0  0  0  0  0  0  0  0  0  0  0
   -2.8739    1.7006    2.7931 X   0  0  0  0  0  0  0  0  0  0  0  0
   -0.0127    1.0858    0.0080 C   0  0  0  0  0  0  0  0  0  0  0  0
   -2.5024    0.4754    0.5366 O   0  0  0  0  0  0  0  0  0  0  0  0
  1  2  1  0  0  0  0
  1  4  1  0  0  0  0
  2  3  1  0  0  0  0
  2  5  2  0  0  0  0
M  END
$$$$
tertbutoxyester
BBcorina  04172114543D 1   1.00000     0.00000     0
CORINA 4.3.0 0026  30.10.2019
  8  7  0  0  0  0  0  0  0  0999 V2000
   -2.4096    0.1622    1.2636 C   0  0  0  0  0  0  0  0  0  0  0  0
   -1.1858    1.8593    0.0178 O   0  0  0  0  0  0  0  0  0  0  0  0
   -3.6185    1.9675    0.0299 C   0  0  0  0  0  0  0  0  0  0  0  0
   -2.4215    0.1758   -1.2348 C   0  0  0  0  0  0  0  0  0  0  0  0
   -0.0143    1.2041    0.0087 C   0  0  0  0  0  0  0  0  0  0  0  0
    1.5063    2.1098   -0.0010 X   0  0  0  0  0  0  0  0  0  0  0  0
   -2.3926    1.0520    0.0191 C   0  0  0  0  0  0  0  0  0  0  0  0
    0.0021   -0.0041    0.0020 O   0  0  0  0  0  0  0  0  0  0  0  0
  1  7  1  0  0  0  0
  2  5  1  0  0  0  0
  2  7  1  0  0  0  0
  3  7  1  0  0  0  0
  4  7  1  0  0  0  0
  5  6  1  0  0  0  0
  5  8  2  0  0  0  0
M  END
$$$$
ethylamide
BBcorina  04172114543D 1   1.00000     0.00000     0
CORINA 4.3.0 0026  30.10.2019
  6  5  0  0  0  0  0  0  0  0999 V2000
    3.5713    2.1931   -0.0203 C   0  0  0  0  0  0  0  0  0  0  0  0
   -0.0144    1.2086    0.0087 C   0  0  0  0  0  0  0  0  0  0  0  0
   -1.5591    2.0727    0.0207 X   0  0  0  0  0  0  0  0  0  0  0  0
    1.1435    1.8983    0.0013 N   0  0  0  0  0  0  0  0  0  0  0  0
    2.4220    1.1832   -0.0147 C   0  0  0  0  0  0  0  0  0  0  0  0
    0.0021   -0.0041    0.0020 O   0  0  0  0  0  0  0  0  0  0  0  0
  1  5  1  0  0  0  0
  2  3  1  0  0  0  0
  2  4  1  0  0  0  0
  2  6  2  0  0  0  0
  4  5  1  0  0  0  0
M  END
$$$$
diethylamide
BBcorina  04172114543D 1   1.00000     0.00000     0
CORINA 4.3.0 0026  30.10.2019
  8  7  0  0  0  0  0  0  0  0999 V2000
    1.1305    3.8654    1.4546 C   0  0  0  0  0  0  0  0  0  0  0  0
    1.1237    3.3632    0.0094 C   0  0  0  0  0  0  0  0  0  0  0  0
    2.8533    0.9419   -1.4627 C   0  0  0  0  0  0  0  0  0  0  0  0
   -0.0144    1.2086    0.0087 C   0  0  0  0  0  0  0  0  0  0  0  0
   -1.5591    2.0727    0.0207 X   0  0  0  0  0  0  0  0  0  0  0  0
    1.1435    1.8983    0.0013 N   0  0  0  0  0  0  0  0  0  0  0  0
    2.4220    1.1832   -0.0147 C   0  0  0  0  0  0  0  0  0  0  0  0
    0.0021   -0.0041    0.0020 O   0  0  0  0  0  0  0  0  0  0  0  0
  1  2  1  0  0  0  0
  2  6  1  0  0  0  0
  3  7  1  0  0  0  0
  4  5  1  0  0  0  0
  4  6  1  0  0  0  0
  4  8  2  0  0  0  0
  6  7  1  0  0  0  0
M  END
$$$$
