methoxyester
BBcorina  04172115143D 1   1.00000     0.00000     0
CORINA 4.3.0 0026  30.10.2019
  5  4  0  0  0  0  0  0  0  0999 V2000
   -0.6923    1.5541    1.2026 O   0  0  0  0  0  0  0  0  0  0  0  0
   -1.9697    1.1752    1.3651 C   0  0  0  0  0  0  0  0  0  0  0  0
   -2.8739    1.7006    2.7931 X   0  0  0  0  0  0  0  0  0  0  0  0
   -0.0127    1.0858    0.0080 C   0  0  0  0  0  0  0  0  0  0  0  0
   -2.5024    0.4754    0.5366 O   0  0  0  0  0  0  0  0  0  0  0  0
  1  2  1  0  0  0  0
  1  4  1  0  0  0  0
  2  3  1  0  0  0  0
  2  5  2  0  0  0  0
M  END
$$$$
