tertbutoxyester
BBcorina  04172114543D 1   1.00000     0.00000     0
CORINA 4.3.0 0026  30.10.2019
  8  7  0  0  0  0  0  0  0  0999 V2000
   -2.4096    0.1622    1.2636 C   0  0  0  0  0  0  0  0  0  0  0  0
   -1.1858    1.8593    0.0178 O   0  0  0  0  0  0  0  0  0  0  0  0
   -3.6185    1.9675    0.0299 C   0  0  0  0  0  0  0  0  0  0  0  0
   -2.4215    0.1758   -1.2348 C   0  0  0  0  0  0  0  0  0  0  0  0
   -0.0143    1.2041    0.0087 C   0  0  0  0  0  0  0  0  0  0  0  0
    1.5063    2.1098   -0.0010 X   0  0  0  0  0  0  0  0  0  0  0  0
   -2.3926    1.0520    0.0191 C   0  0  0  0  0  0  0  0  0  0  0  0
    0.0021   -0.0041    0.0020 O   0  0  0  0  0  0  0  0  0  0  0  0
  1  7  1  0  0  0  0
  2  5  1  0  0  0  0
  2  7  1  0  0  0  0
  3  7  1  0  0  0  0
  4  7  1  0  0  0  0
  5  6  1  0  0  0  0
  5  8  2  0  0  0  0
M  END
$$$$
