diethylamide
BBcorina  04172114543D 1   1.00000     0.00000     0
CORINA 4.3.0 0026  30.10.2019
  8  7  0  0  0  0  0  0  0  0999 V2000
    1.1305    3.8654    1.4546 C   0  0  0  0  0  0  0  0  0  0  0  0
    1.1237    3.3632    0.0094 C   0  0  0  0  0  0  0  0  0  0  0  0
    2.8533    0.9419   -1.4627 C   0  0  0  0  0  0  0  0  0  0  0  0
   -0.0144    1.2086    0.0087 C   0  0  0  0  0  0  0  0  0  0  0  0
   -1.5591    2.0727    0.0207 X   0  0  0  0  0  0  0  0  0  0  0  0
    1.1435    1.8983    0.0013 N   0  0  0  0  0  0  0  0  0  0  0  0
    2.4220    1.1832   -0.0147 C   0  0  0  0  0  0  0  0  0  0  0  0
    0.0021   -0.0041    0.0020 O   0  0  0  0  0  0  0  0  0  0  0  0
  1  2  1  0  0  0  0
  2  6  1  0  0  0  0
  3  7  1  0  0  0  0
  4  5  1  0  0  0  0
  4  6  1  0  0  0  0
  4  8  2  0  0  0  0
  6  7  1  0  0  0  0
M  END
$$$$
