formaldehyde
  PyMOL2.3          3D                             0

  4  3  0  0  0  0  0  0  0  0999 V2000
   -1.9527    0.5834   -0.7154 C   0  0  0  1  0  0  0  0  0  0  0  0
   -1.7081    1.0855   -1.7866 O   0  0  0  1  0  0  0  0  0  0  0  0
   -2.9855    0.3847   -0.4293 H   0  0  0  1  0  0  0  0  0  0  0  0
   -1.1397    0.3294   -0.0352 H   0  0  0  1  0  0  0  0  0  0  0  0
  1  2  2  0  0  0  0
  1  3  1  0  0  0  0
  1  4  1  0  0  0  0
M  END
$$$$
Largest isolated from 
  PyMOL2.3          3D                             0

 18 18  0  0  0  0  0  0  0  0999 V2000
    2.4451    3.9250   -0.0007 C   0  0  0  1  0  0  0  0  0  0  0  0
    1.1426    3.1670    0.0077 C   0  0  0  1  0  0  0  0  0  0  0  0
    1.1562    1.7768    0.0006 C   0  0  0  1  0  0  0  0  0  0  0  0
   -0.0126    1.0758    0.0080 C   0  0  0  1  0  0  0  0  0  0  0  0
   -1.2481    1.7719    0.0176 C   0  0  0  1  0  0  0  0  0  0  0  0
   -2.3925    1.1044    0.0193 N   0  0  0  1  0  0  0  0  0  0  0  0
   -3.4778    1.7246    0.0278 C   0  0  0  1  0  0  0  0  0  0  0  0
   -1.2457    3.1915    0.0310 C   0  0  0  1  0  0  0  0  0  0  0  0
   -2.7445    4.0673    0.0501 Cl  0  0  0  1  0  0  0  0  0  0  0  0
   -0.0570    3.8642    0.0228 C   0  0  0  1  0  0  0  0  0  0  0  0
    2.7495    4.1129   -1.0303 H   0  0  0  1  0  0  0  0  0  0  0  0
    2.3163    4.8744    0.5192 H   0  0  0  1  0  0  0  0  0  0  0  0
    3.2115    3.3360    0.5031 H   0  0  0  1  0  0  0  0  0  0  0  0
    2.0985    1.2493   -0.0113 H   0  0  0  1  0  0  0  0  0  0  0  0
    0.0021   -0.0041    0.0020 H   0  0  0  1  0  0  0  0  0  0  0  0
   -0.0507    4.9442    0.0286 H   0  0  0  1  0  0  0  0  0  0  0  0
   -4.4193    1.1754    0.0292 H   0  0  0  1  0  0  0  0  0  0  0  0
   -3.4826    2.8146    0.0338 H   0  0  0  1  0  0  0  0  0  0  0  0
  1  2  1  0  0  0  0
  1 11  1  0  0  0  0
  1 12  1  0  0  0  0
  1 13  1  0  0  0  0
  2  3  1  0  0  0  0
  2 10  2  0  0  0  0
  3  4  2  0  0  0  0
  3 14  1  0  0  0  0
  4  5  1  0  0  0  0
  4 15  1  0  0  0  0
  5  6  1  0  0  0  0
  5  8  2  0  0  0  0
  6  7  2  0  0  0  0
  7 17  1  0  0  0  0
  7 18  1  0  0  0  0
  8  9  1  0  0  0  0
  8 10  1  0  0  0  0
 10 16  1  0  0  0  0
M  END
$$$$
Largest isolated from 
BBcorina  11292114133D 1   1.00000     0.00000 
CORINA 4.3.0 0026  30.10.2019
 20 20  0  0  0  0  0  0  0  0999 V2000
   -0.8617    3.2635    1.4708 O   0  0  0  1  0  0  0  0  0  0  0  0
   -0.7232    1.9468    1.2500 C   0  0  0  1  0  0  0  0  0  0  0  0
   -1.1640    1.1512    2.0453 O   0  0  0  1  0  0  0  0  0  0  0  0
   -0.0178    1.4608    0.0101 C   0  0  0  1  0  0  0  0  0  0  0  0
    0.0021   -0.0041    0.0020 N   0  0  0  1  0  0  0  0  0  0  0  0
    0.5851   -0.6645   -1.0180 C   0  0  0  1  0  0  0  0  0  0  0  0
    1.0941   -0.0452   -1.9306 O   0  0  0  1  0  0  0  0  0  0  0  0
    0.6052   -2.1497   -1.0261 C   0  0  0  1  0  0  0  0  0  0  0  0
    1.1826   -2.7823   -2.0366 N   0  0  0  1  0  0  0  0  0  0  0  0
    1.2184   -4.1024   -2.0756 C   0  0  0  1  0  0  0  0  0  0  0  0
    0.6415   -4.8256   -1.0409 C   0  0  0  1  0  0  0  0  0  0  0  0
    0.0454   -4.1297    0.0017 C   0  0  0  1  0  0  0  0  0  0  0  0
    0.0501   -2.8088   -0.0201 N   0  0  0  1  0  0  0  0  0  0  0  0
   -1.3213    3.5270    2.2797 H   0  0  0  1  0  0  0  0  0  0  0  0
    1.0048    1.8381    0.0023 H   0  0  0  1  0  0  0  0  0  0  0  0
   -0.5450    1.8219   -0.8730 H   0  0  0  1  0  0  0  0  0  0  0  0
   -0.4044   -0.4986    0.7308 H   0  0  0  1  0  0  0  0  0  0  0  0
    1.6903   -4.6124   -2.9024 H   0  0  0  1  0  0  0  0  0  0  0  0
    0.6559   -5.9055   -1.0470 H   0  0  0  1  0  0  0  0  0  0  0  0
   -0.4127   -4.6614    0.8226 H   0  0  0  1  0  0  0  0  0  0  0  0
  1  2  1  0  0  0  0
  1 14  1  0  0  0  0
  2  3  2  0  0  0  0
  2  4  1  0  0  0  0
  4  5  1  0  0  0  0
  4 15  1  0  0  0  0
  4 16  1  0  0  0  0
  5  6  1  0  0  0  0
  5 17  1  0  0  0  0
  6  7  2  0  0  0  0
  6  8  1  0  0  0  0
  8  9  1  0  0  0  0
  8 13  2  0  0  0  0
  9 10  2  0  0  0  0
 10 11  1  0  0  0  0
 10 18  1  0  0  0  0
 11 12  2  0  0  0  0
 11 19  1  0  0  0  0
 12 13  1  0  0  0  0
 12 20  1  0  0  0  0
M  END
$$$$
